ID BAR,TEST
SOL 1,1
DIAG 14,8
CEND
TITLE = BAR BENDING
ECHO = NONE
SPC = 1
DISP = ALL
SPCF = ALL
ELFORCE = ALL
STRESS = ALL
GPFORCE = ALL
SUBCASE 1
LOAD = 2
BEGIN BULK
PBAR     1       2      100.    833.33  833.33  1406.4                  +      A
+      A5.      5.      -5.     5.      -5.     -5.     5.              +      B
+      B.83342  .83342
CBAR     1       1       1       2       0.     1.       0.
CBAR     2       1       2       3       0.     1.       0.
CBAR     3       1       3       4       0.     1.       0.
CBAR     4       1       4       5       0.     1.       0.
CBAR     5       1       5       6       0.     1.       0.
CBAR     6       1       6       7       0.     1.       0.
CBAR     7       1       7       8       0.     1.       0.
CBAR     8       1       8       9       0.     1.       0.
CBAR     9       1       9       10      0.     1.       0.
CBAR     10      1       10      11      0.     1.       0.
MAT1     2      10000.          .3      1.-9
GRID     1               0.      0.      0.
GRID     2              10.      0.      0.
GRID     3              20.      0.      0.
GRID     4              30.      0.      0.
GRID     5              40.      0.      0.
GRID     6              50.      0.      0.
GRID     7              60.      0.      0.
GRID     8              70.      0.      0.
GRID     9              80.      0.      0.
GRID     10             90.      0.      0.
GRID     11             100.     0.      0.
SPC1     1       123456  1
FORCE    2       11      0      10.      0.     -1.      0.
ENDDATA
